dss/export/decsa/Line.dss
New Line.conexion_et_bus_1373 bus1=buset bus2=1373 length=1.0 units=0 r1=0.000275299 r0=0.000420731 x1=0.000297103 x0=0.00169017 c1=0.012569200000000003 c0=0.0037520900000000005 enabled=true phases=3
New Line.conexion_et_bus_1407 bus1=buset bus2=1407 length=1.0 units=0 r1=0.000275299 r0=0.000420731 x1=0.000297103 x0=0.00169017 c1=0.012569200000000003 c0=0.0037520900000000005 enabled=true phases=3
New Line.conexion_et_bus_61 bus1=buset bus2=61 length=1.0 units=0 r1=0.000275299 r0=0.000420731 x1=0.000297103 x0=0.00169017 c1=0.012569200000000003 c0=0.0037520900000000005 enabled=true phases=3
New Line.conexion_et_bus_67 bus1=buset bus2=67 length=1.0 units=0 r1=0.000275299 r0=0.000420731 x1=0.000297103 x0=0.00169017 c1=0.012569200000000003 c0=0.0037520900000000005 enabled=true phases=3
New Line.conexion_et_bus_1366 bus1=buset bus2=1366 length=1.0 units=4 r1=0.000275299 r0=0.000420731 x1=0.000297103 x0=0.00169017 c1=0.012569200000000003 c0=0.0037520900000000005 enabled=true phases=3
New Line.idlinea1_idtramos_1 bus1=1 bus2=2 length=517.363 units=0 r1=0.00048417 r0=0.000629602 x1=0.000315326 x0=0.0017084 c1=0.0117887 c0=0.00367967 enabled=true phases=3
New Line.idlinea2_idtramos_2 bus1=2 bus2=837 length=307.326 units=0 r1=0.00048417 r0=0.000629602 x1=0.000315326 x0=0.0017084 c1=0.0117887 c0=0.00367967 enabled=true phases=3
New Line.idlinea3_idtramos_3 bus1=853 bus2=854 length=43.514 units=0 r1=0.000952086 r0=0.00109752 x1=0.00033682 x0=0.00172989 c1=0.0109851 c0=0.0035978200000000003 enabled=true phases=3
New Line.idlinea4_idtramos_4 bus1=1364 bus2=829 length=9.729 units=0 r1=0.000952086 r0=0.00109752 x1=0.00033682 x0=0.00172989 c1=0.0109851 c0=0.0035978200000000003 enabled=true phases=3
New Line.idlinea5_idtramos_5 bus1=831 bus2=3 length=64.12 units=0 r1=0.000952086 r0=0.00109752 x1=0.00033682 x0=0.00172989 c1=0.0109851 c0=0.0035978200000000003 enabled=true phases=3
New Line.idlinea6_idtramos_6 bus1=835 bus2=4 length=31.756 units=0 r1=0.000952086 r0=0.00109752 x1=0.00033682 x0=0.00172989 c1=0.0109851 c0=0.0035978200000000003 enabled=true phases=3
New Line.idlinea7_idtramos_7 bus1=837 bus2=836 length=621.297 units=0 r1=0.00048417 r0=0.000629602 x1=0.000315326 x0=0.0017084 c1=0.0117887 c0=0.00367967 enabled=true phases=3
New Line.idlinea8_idtramos_8 bus1=825 bus2=820 length=47.359 units=0 r1=0.000663124 r0=0.000808557 x1=0.000325502 x0=0.00171857 c1=0.011393900000000002 c0=0.0036404500000000004 enabled=true phases=3
New Line.idlinea16_idtramos_9 bus1=5 bus2=839 length=244.205 units=0 r1=0.00048417 r0=0.000629602 x1=0.000315326 x0=0.0017084 c1=0.0117887 c0=0.00367967 enabled=true phases=3
New Line.idlinea17_idtramos_10 bus1=5 bus2=840 length=20.714 units=0 r1=0.00048417 r0=0.000629602 x1=0.000315326 x0=0.0017084 c1=0.0117887 c0=0.00367967 enabled=true phases=3
New Line.idlinea18_idtramos_11 bus1=1363 bus2=648 length=28.91 units=0 r1=0.00048417 r0=0.000629602 x1=0.000315326 x0=0.0017084 c1=0.0117887 c0=0.00367967 enabled=true phases=3
New Line.idlinea28_idtramos_12 bus1=886 bus2=892 length=41.74 units=0 r1=0.000952086 r0=0.00109752 x1=0.00033682 x0=0.00172989 c1=0.0109851 c0=0.0035978200000000003 enabled=true phases=3
New Line.idlinea35_idtramos_13 bus1=851 bus2=848 length=25.325 units=0 r1=0.000952086 r0=0.00109752 x1=0.00033682 x0=0.00172989 c1=0.0109851 c0=0.0035978200000000003 enabled=true phases=3
New Line.idlinea39_idtramos_14 bus1=1294 bus2=6 length=14.565 units=0 r1=0.000663124 r0=0.000808557 x1=0.000325502 x0=0.00171857 c1=0.011393900000000002 c0=0.0036404500000000004 enabled=true phases=3
New Line.idlinea39_idtramos_15 bus1=6 bus2=229 length=14.521 units=0 r1=0.000663124 r0=0.000808557 x1=0.000325502 x0=0.00171857 c1=0.011393900000000002 c0=0.0036404500000000004 enabled=true phases=3
New Line.idlinea41_idtramos_16 bus1=1294 bus2=1742 length=484.806 units=0 r1=0.000663124 r0=0.000808557 x1=0.000325502 x0=0.00171857 c1=0.011393900000000002 c0=0.0036404500000000004 enabled=true phases=3
New Line.idlinea42_idtramos_17 bus1=732 bus2=727 length=21.831 units=0 r1=0.000952086 r0=0.00109752 x1=0.00033682 x0=0.00172989 c1=0.0109851 c0=0.0035978200000000003 enabled=true phases=3
New Line.idlinea54_idtramos_18 bus1=757 bus2=758 length=17.451 units=0 r1=0.00048417 r0=0.000629602 x1=0.000315326 x0=0.0017084 c1=0.0117887 c0=0.00367967 enabled=true phases=3
New Line.idlinea55_idtramos_19 bus1=744 bus2=755 length=113.01 units=0 r1=0.000663124 r0=0.000808557 x1=0.000325502 x0=0.00171857 c1=0.011393900000000002 c0=0.0036404500000000004 enabled=true phases=3
New Line.idlinea38_idtramos_20 bus1=7 bus2=8 length=1007.5 units=0 r1=0.000663124 r0=0.000808557 x1=0.000325502 x0=0.00171857 c1=0.011393900000000002 c0=0.0036404500000000004 enabled=true phases=3
New Line.idlinea38_idtramos_21 bus1=8 bus2=9 length=36.421 units=0 r1=0.000663124 r0=0.000808557 x1=0.000325502 x0=0.00171857 c1=0.011393900000000002 c0=0.0036404500000000004 enabled=true phases=3
New Line.idlinea38_idtramos_22 bus1=9 bus2=10 length=74.044 units=0 r1=0.000663124 r0=0.000808557 x1=0.000325502 x0=0.00171857 c1=0.011393900000000002 c0=0.0036404500000000004 enabled=true phases=3
New Line.idlinea38_idtramos_23 bus1=10 bus2=11 length=32.108 units=0 r1=0.000663124 r0=0.000808557 x1=0.000325502 x0=0.00171857 c1=0.011393900000000002 c0=0.0036404500000000004 enabled=true phases=3
New Line.idlinea38_idtramos_24 bus1=11 bus2=12 length=13.867 units=0 r1=0.000663124 r0=0.000808557 x1=0.000325502 x0=0.00171857 c1=0.011393900000000002 c0=0.0036404500000000004 enabled=true phases=3
New Line.idlinea38_idtramos_25 bus1=12 bus2=13 length=12.112 units=0 r1=0.000663124 r0=0.000808557 x1=0.000325502 x0=0.00171857 c1=0.011393900000000002 c0=0.0036404500000000004 enabled=true phases=3
New Line.idlinea38_idtramos_26 bus1=13 bus2=1293 length=152.085 units=0 r1=0.000663124 r0=0.000808557 x1=0.000325502 x0=0.00171857 c1=0.011393900000000002 c0=0.0036404500000000004 enabled=true phases=3
New Line.idlinea40_idtramos_27 bus1=749 bus2=753 length=98.152 units=0 r1=0.00048417 r0=0.000629602 x1=0.000315326 x0=0.0017084 c1=0.0117887 c0=0.00367967 enabled=true phases=3
New Line.idlinea56_idtramos_28 bus1=1782 bus2=733 length=394.734 units=0 r1=0.000663124 r0=0.000808557 x1=0.000325502 x0=0.00171857 c1=0.011393900000000002 c0=0.0036404500000000004 enabled=true phases=3
New Line.idlinea61_idtramos_29 bus1=14 bus2=739 length=517.789 units=0 r1=0.000952086 r0=0.00109752 x1=0.00033682 x0=0.00172989 c1=0.0109851 c0=0.0035978200000000003 enabled=true phases=3
New Line.idlinea62_idtramos_30 bus1=744 bus2=756 length=60.185 units=0 r1=0.000663124 r0=0.000808557 x1=0.000325502 x0=0.00171857 c1=0.011393900000000002 c0=0.0036404500000000004 enabled=true phases=3
New Line.idlinea9_idtramos_31 bus1=15 bus2=823 length=340.328 units=0 r1=0.000663124 r0=0.000808557 x1=0.000325502 x0=0.00171857 c1=0.011393900000000002 c0=0.0036404500000000004 enabled=true phases=3
New Line.idlinea10_idtramos_32 bus1=16 bus2=17 length=55.442 units=0 r1=0.000952086 r0=0.00109752 x1=0.00033682 x0=0.00172989 c1=0.0109851 c0=0.0035978200000000003 enabled=true phases=3
New Line.idlinea10_idtramos_33 bus1=17 bus2=18 length=86.575 units=0 r1=0.000952086 r0=0.00109752 x1=0.00033682 x0=0.00172989 c1=0.0109851 c0=0.0035978200000000003 enabled=true phases=3
New Line.idlinea10_idtramos_34 bus1=18 bus2=19 length=366.881 units=0 r1=0.000952086 r0=0.00109752 x1=0.00033682 x0=0.00172989 c1=0.0109851 c0=0.0035978200000000003 enabled=true phases=3
New Line.idlinea10_idtramos_35 bus1=19 bus2=20 length=240.07 units=0 r1=0.000952086 r0=0.00109752 x1=0.00033682 x0=0.00172989 c1=0.0109851 c0=0.0035978200000000003 enabled=true phases=3
New Line.idlinea10_idtramos_36 bus1=20 bus2=21 length=47.772 units=0 r1=0.000952086 r0=0.00109752 x1=0.00033682 x0=0.00172989 c1=0.0109851 c0=0.0035978200000000003 enabled=true phases=3
New Line.idlinea10_idtramos_37 bus1=21 bus2=22 length=43.531 units=0 r1=0.000952086 r0=0.00109752 x1=0.00033682 x0=0.00172989 c1=0.0109851 c0=0.0035978200000000003 enabled=true phases=3
New Line.idlinea10_idtramos_38 bus1=22 bus2=1749 length=26.95 units=0 r1=0.000952086 r0=0.00109752 x1=0.00033682 x0=0.00172989 c1=0.0109851 c0=0.0035978200000000003 enabled=true phases=3
New Line.idlinea11_idtramos_39 bus1=654 bus2=653 length=528.272 units=0 r1=0.000952086 r0=0.00109752 x1=0.00033682 x0=0.00172989 c1=0.0109851 c0=0.0035978200000000003 enabled=true phases=3
New Line.idlinea12_idtramos_40 bus1=1423 bus2=668 length=53.403 units=0 r1=0.00048417 r0=0.000629602 x1=0.000315326 x0=0.0017084 c1=0.0117887 c0=0.00367967 enabled=true phases=3
New Line.idlinea13_idtramos_41 bus1=76 bus2=671 length=134.016 units=0 r1=0.00048417 r0=0.000629602 x1=0.000315326 x0=0.0017084 c1=0.0117887 c0=0.00367967 enabled=true phases=3
New Line.idlinea14_idtramos_42 bus1=657 bus2=658 length=650.112 units=0 r1=0.000952086 r0=0.00109752 x1=0.00033682 x0=0.00172989 c1=0.0109851 c0=0.0035978200000000003 enabled=true phases=3
New Line.idlinea15_idtramos_43 bus1=660 bus2=664 length=51.137 units=0 r1=0.000952086 r0=0.00109752 x1=0.00033682 x0=0.00172989 c1=0.0109851 c0=0.0035978200000000003 enabled=true phases=3
New Line.idlinea19_idtramos_44 bus1=642 bus2=644 length=7.965 units=0 r1=0.000952086 r0=0.00109752 x1=0.00033682 x0=0.00172989 c1=0.0109851 c0=0.0035978200000000003 enabled=true phases=3
New Line.idlinea43_idtramos_45 bus1=1673 bus2=693 length=111.277 units=0 r1=0.000952086 r0=0.00109752 x1=0.00033682 x0=0.00172989 c1=0.0109851 c0=0.0035978200000000003 enabled=true phases=3
New Line.idlinea99_idtramos_46 bus1=289 bus2=292 length=48.256 units=0 r1=0.000952086 r0=0.00109752 x1=0.00033682 x0=0.00172989 c1=0.0109851 c0=0.0035978200000000003 enabled=true phases=3
New Line.idlinea20_idtramos_47 bus1=646 bus2=23 length=296.972 units=0 r1=0.00048417 r0=0.000629602 x1=0.000315326 x0=0.0017084 c1=0.0117887 c0=0.00367967 enabled=true phases=3
New Line.idlinea65_idtramos_48 bus1=24 bus2=25 length=359.608 units=0 r1=0.00048417 r0=0.000629602 x1=0.000315326 x0=0.0017084 c1=0.0117887 c0=0.00367967 enabled=true phases=3
New Line.idlinea65_idtramos_49 bus1=25 bus2=26 length=87.421 units=0 r1=0.00048417 r0=0.000629602 x1=0.000315326 x0=0.0017084 c1=0.0117887 c0=0.00367967 enabled=true phases=3
New Line.idlinea66_idtramos_50 bus1=89 bus2=26 length=272.813 units=0 r1=0.00048417 r0=0.000629602 x1=0.000315326 x0=0.0017084 c1=0.0117887 c0=0.00367967 enabled=true phases=3
New Line.idlinea96_idtramos_51 bus1=304 bus2=302 length=6.43 units=0 r1=0.00048417 r0=0.000629602 x1=0.000315326 x0=0.0017084 c1=0.0117887 c0=0.00367967 enabled=true phases=3
New Line.idlinea22_idtramos_52 bus1=871 bus2=1724 length=6.496 units=0 r1=0.000952086 r0=0.00109752 x1=0.00033682 x0=0.00172989 c1=0.0109851 c0=0.0035978200000000003 enabled=true phases=3
New Line.idlinea97_idtramos_53 bus1=312 bus2=310 length=33.456 units=0 r1=0.000952086 r0=0.00109752 x1=0.00033682 x0=0.00172989 c1=0.0109851 c0=0.0035978200000000003 enabled=true phases=3
New Line.idlinea98_idtramos_54 bus1=1378 bus2=317 length=31.231 units=0 r1=0.00048417 r0=0.000629602 x1=0.000315326 x0=0.0017084 c1=0.0117887 c0=0.00367967 enabled=true phases=3
New Line.idlinea100_idtramos_55 bus1=289 bus2=1288 length=42.003 units=0 r1=0.000952086 r0=0.00109752 x1=0.00033682 x0=0.00172989 c1=0.0109851 c0=0.0035978200000000003 enabled=true phases=3
New Line.idlinea101_idtramos_56 bus1=1272 bus2=276 length=14.317 units=0 r1=0.000952086 r0=0.00109752 x1=0.00033682 x0=0.00172989 c1=0.0109851 c0=0.0035978200000000003 enabled=true phases=3
New Line.idlinea102_idtramos_57 bus1=272 bus2=27 length=301.571 units=0 r1=0.000952086 r0=0.00109752 x1=0.00033682 x0=0.00172989 c1=0.0109851 c0=0.0035978200000000003 enabled=true phases=3
New Line.idlinea103_idtramos_58 bus1=28 bus2=29 length=236.552 units=0 r1=0.000952086 r0=0.00109752 x1=0.00033682 x0=0.00172989 c1=0.0109851 c0=0.0035978200000000003 enabled=true phases=3
New Line.idlinea104_idtramos_59 bus1=29 bus2=30 length=528.526 units=0 r1=0.000952086 r0=0.00109752 x1=0.00033682 x0=0.00172989 c1=0.0109851 c0=0.0035978200000000003 enabled=true phases=3
New Line.idlinea105_idtramos_60 bus1=1812 bus2=353 length=37.297 units=0 r1=0.000952086 r0=0.00109752 x1=0.00033682 x0=0.00172989 c1=0.0109851 c0=0.0035978200000000003 enabled=true phases=3
New Line.idlinea106_idtramos_61 bus1=382 bus2=1274 length=29.74 units=0 r1=0.000952086 r0=0.00109752 x1=0.00033682 x0=0.00172989 c1=0.0109851 c0=0.0035978200000000003 enabled=true phases=3
New Line.idlinea107_idtramos_62 bus1=113 bus2=382 length=70.505 units=0 r1=0.000663124 r0=0.000808557 x1=0.000325502 x0=0.00171857 c1=0.011393900000000002 c0=0.0036404500000000004 enabled=true phases=3
New Line.idlinea108_idtramos_63 bus1=383 bus2=380 length=512.092 units=0 r1=0.00048417 r0=0.000629602 x1=0.000315326 x0=0.0017084 c1=0.0117887 c0=0.00367967 enabled=true phases=3
New Line.idlinea23_idtramos_64 bus1=876 bus2=878 length=5.212 units=0 r1=0.000952086 r0=0.00109752 x1=0.00033682 x0=0.00172989 c1=0.0109851 c0=0.0035978200000000003 enabled=true phases=3
New Line.idlinea44_idtramos_65 bus1=707 bus2=688 length=24.318 units=0 r1=0.000952086 r0=0.00109752 x1=0.00033682 x0=0.00172989 c1=0.0109851 c0=0.0035978200000000003 enabled=true phases=3
New Line.idlinea45_idtramos_66 bus1=1414 bus2=705 length=51.729 units=0 r1=0.000663124 r0=0.000808557 x1=0.000325502 x0=0.00171857 c1=0.011393900000000002 c0=0.0036404500000000004 enabled=true phases=3
New Line.idlinea109_idtramos_67 bus1=381 bus2=1686 length=40.945 units=0 r1=0.00048417 r0=0.000629602 x1=0.000315326 x0=0.0017084 c1=0.0117887 c0=0.00367967 enabled=true phases=3
New Line.idlinea110_idtramos_68 bus1=379 bus2=377 length=24.85 units=0 r1=0.000952086 r0=0.00109752 x1=0.00033682 x0=0.00172989 c1=0.0109851 c0=0.0035978200000000003 enabled=true phases=3
New Line.idlinea46_idtramos_69 bus1=1414 bus2=31 length=48.055 units=0 r1=0.00048417 r0=0.000629602 x1=0.000315326 x0=0.0017084 c1=0.0117887 c0=0.00367967 enabled=true phases=3
New Line.idlinea46_idtramos_70 bus1=31 bus2=32 length=21.476 units=0 r1=0.00048417 r0=0.000629602 x1=0.000315326 x0=0.0017084 c1=0.0117887 c0=0.00367967 enabled=true phases=3
New Line.idlinea46_idtramos_71 bus1=32 bus2=33 length=45.682 units=0 r1=0.00048417 r0=0.000629602 x1=0.000315326 x0=0.0017084 c1=0.0117887 c0=0.00367967 enabled=true phases=3
New Line.idlinea46_idtramos_72 bus1=33 bus2=34 length=86.441 units=0 r1=0.00048417 r0=0.000629602 x1=0.000315326 x0=0.0017084 c1=0.0117887 c0=0.00367967 enabled=true phases=3
New Line.idlinea46_idtramos_73 bus1=34 bus2=35 length=173.174 units=0 r1=0.00048417 r0=0.000629602 x1=0.000315326 x0=0.0017084 c1=0.0117887 c0=0.00367967 enabled=true phases=3
New Line.idlinea46_idtramos_74 bus1=35 bus2=36 length=304.813 units=0 r1=0.00048417 r0=0.000629602 x1=0.000315326 x0=0.0017084 c1=0.0117887 c0=0.00367967 enabled=true phases=3
New Line.idlinea46_idtramos_75 bus1=36 bus2=37 length=705.193 units=0 r1=0.00048417 r0=0.000629602 x1=0.000315326 x0=0.0017084 c1=0.0117887 c0=0.00367967 enabled=true phases=3
New Line.idlinea47_idtramos_76 bus1=686 bus2=38 length=55.532 units=0 r1=0.000952086 r0=0.00109752 x1=0.00033682 x0=0.00172989 c1=0.0109851 c0=0.0035978200000000003 enabled=true phases=3
New Line.idlinea47_idtramos_77 bus1=38 bus2=39 length=261.857 units=0 r1=0.000952086 r0=0.00109752 x1=0.00033682 x0=0.00172989 c1=0.0109851 c0=0.0035978200000000003 enabled=true phases=3
New Line.idlinea48_idtramos_78 bus1=40 bus2=717 length=54.196 units=0 r1=0.000663124 r0=0.000808557 x1=0.000325502 x0=0.00171857 c1=0.011393900000000002 c0=0.0036404500000000004 enabled=true phases=3
New Line.idlinea49_idtramos_79 bus1=40 bus2=719 length=29.2 units=0 r1=0.000952086 r0=0.00109752 x1=0.00033682 x0=0.00172989 c1=0.0109851 c0=0.0035978200000000003 enabled=true phases=3
New Line.idlinea50_idtramos_80 bus1=727 bus2=729 length=21.996 units=0 r1=0.000663124 r0=0.000808557 x1=0.000325502 x0=0.00171857 c1=0.011393900000000002 c0=0.0036404500000000004 enabled=true phases=3
New Line.idlinea51_idtramos_81 bus1=41 bus2=743 length=328.627 units=0 r1=0.000952086 r0=0.00109752 x1=0.00033682 x0=0.00172989 c1=0.0109851 c0=0.0035978200000000003 enabled=true phases=3
New Line.idlinea52_idtramos_82 bus1=1731 bus2=42 length=362.378 units=0 r1=0.000663124 r0=0.000808557 x1=0.000325502 x0=0.00171857 c1=0.011393900000000002 c0=0.0036404500000000004 enabled=true phases=3
New Line.idlinea53_idtramos_83 bus1=1731 bus2=1719 length=57.043 units=0 r1=0.000663124 r0=0.000808557 x1=0.000325502 x0=0.00171857 c1=0.011393900000000002 c0=0.0036404500000000004 enabled=true phases=3
New Line.idlinea111_idtramos_84 bus1=376 bus2=371 length=59.324 units=0 r1=0.000952086 r0=0.00109752 x1=0.00033682 x0=0.00172989 c1=0.0109851 c0=0.0035978200000000003 enabled=true phases=3
New Line.idlinea112_idtramos_85 bus1=369 bus2=1360 length=48.968 units=0 r1=0.000952086 r0=0.00109752 x1=0.00033682 x0=0.00172989 c1=0.0109851 c0=0.0035978200000000003 enabled=true phases=3
New Line.idlinea114_idtramos_86 bus1=363 bus2=43 length=26.024 units=0 r1=0.000952086 r0=0.00109752 x1=0.00033682 x0=0.00172989 c1=0.0109851 c0=0.0035978200000000003 enabled=true phases=3
New Line.idlinea122_idtramos_87 bus1=236 bus2=248 length=31.224 units=0 r1=0.000952086 r0=0.00109752 x1=0.00033682 x0=0.00172989 c1=0.0109851 c0=0.0035978200000000003 enabled=true phases=3
New Line.idlinea57_idtramos_88 bus1=45 bus2=745 length=870.915 units=0 r1=0.00131006 r0=0.0014555 x1=0.000346644 x0=0.00173971 c1=0.010653400000000002 c0=0.00356164 enabled=true phases=3
New Line.idlinea24_idtramos_89 bus1=863 bus2=44 length=186.25 units=0 r1=0.000663124 r0=0.000808557 x1=0.000325502 x0=0.00171857 c1=0.011393900000000002 c0=0.0036404500000000004 enabled=true phases=3
New Line.idlinea58_idtramos_90 bus1=45 bus2=699 length=658.953 units=0 r1=0.000663124 r0=0.000808557 x1=0.000325502 x0=0.00171857 c1=0.011393900000000002 c0=0.0036404500000000004 enabled=true phases=3
New Line.idlinea59_idtramos_91 bus1=744 bus2=46 length=11.123 units=0 r1=0.000663124 r0=0.000808557 x1=0.000325502 x0=0.00171857 c1=0.011393900000000002 c0=0.0036404500000000004 enabled=true phases=3
New Line.idlinea59_idtramos_92 bus1=46 bus2=47 length=30.397 units=0 r1=0.000663124 r0=0.000808557 x1=0.000325502 x0=0.00171857 c1=0.011393900000000002 c0=0.0036404500000000004 enabled=true phases=3
New Line.idlinea59_idtramos_93 bus1=47 bus2=741 length=726.186 units=0 r1=0.000663124 r0=0.000808557 x1=0.000325502 x0=0.00171857 c1=0.011393900000000002 c0=0.0036404500000000004 enabled=true phases=3
New Line.idlinea124_idtramos_94 bus1=48 bus2=1734 length=152.651 units=0 r1=0.000663124 r0=0.000808557 x1=0.000325502 x0=0.00171857 c1=0.011393900000000002 c0=0.0036404500000000004 enabled=true phases=3
New Line.idlinea125_idtramos_95 bus1=1318 bus2=49 length=9.286 units=0 r1=0.00048417 r0=0.000629602 x1=0.000315326 x0=0.0017084 c1=0.0117887 c0=0.00367967 enabled=true phases=3
New Line.idlinea125_idtramos_96 bus1=49 bus2=50 length=552.06 units=0 r1=0.00048417 r0=0.000629602 x1=0.000315326 x0=0.0017084 c1=0.0117887 c0=0.00367967 enabled=true phases=3
New Line.idlinea25_idtramos_97 bus1=863 bus2=51 length=17.192 units=0 r1=0.00048417 r0=0.000629602 x1=0.000315326 x0=0.0017084 c1=0.0117887 c0=0.00367967 enabled=true phases=3
New Line.idlinea25_idtramos_98 bus1=51 bus2=52 length=224.597 units=0 r1=0.00048417 r0=0.000629602 x1=0.000315326 x0=0.0017084 c1=0.0117887 c0=0.00367967 enabled=true phases=3
New Line.idlinea126_idtramos_99 bus1=256 bus2=257 length=52.451 units=0 r1=0.000663124 r0=0.000808557 x1=0.000325502 x0=0.00171857 c1=0.011393900000000002 c0=0.0036404500000000004 enabled=true phases=3
New Line.idlinea26_idtramos_100 bus1=52 bus2=57 length=1032.359 units=0 r1=0.000352234 r0=0.000497666 x1=0.000305055 x0=0.00169813 c1=0.012216100000000002 c0=0.0037201300000000003 enabled=true phases=3
New Line.idlinea60_idtramos_101 bus1=1782 bus2=735 length=58.39 units=0 r1=0.000663124 r0=0.000808557 x1=0.000325502 x0=0.00171857 c1=0.011393900000000002 c0=0.0036404500000000004 enabled=true phases=3
New Line.idlinea113_idtramos_102 bus1=72 bus2=53 length=219.905 units=0 r1=0.000952086 r0=0.00109752 x1=0.00033682 x0=0.00172989 c1=0.0109851 c0=0.0035978200000000003 enabled=true phases=3
New Line.idlinea113_idtramos_103 bus1=53 bus2=54 length=86.937 units=0 r1=0.000952086 r0=0.00109752 x1=0.00033682 x0=0.00172989 c1=0.0109851 c0=0.0035978200000000003 enabled=true phases=3
New Line.idlinea127_idtramos_104 bus1=329 bus2=331 length=30.456 units=0 r1=0.00131006 r0=0.0014555 x1=0.000346644 x0=0.00173971 c1=0.010653400000000002 c0=0.00356164 enabled=true phases=3
New Line.idlinea131_idtramos_105 bus1=1706 bus2=256 length=28.505 units=0 r1=0.000663124 r0=0.000808557 x1=0.000325502 x0=0.00171857 c1=0.011393900000000002 c0=0.0036404500000000004 enabled=true phases=3
New Line.idlinea132_idtramos_106 bus1=1675 bus2=284 length=34.36 units=0 r1=0.00048417 r0=0.000629602 x1=0.000315326 x0=0.0017084 c1=0.0117887 c0=0.00367967 enabled=true phases=3
New Line.idlinea133_idtramos_107 bus1=890 bus2=1340 length=99.141 units=0 r1=0.00048417 r0=0.000629602 x1=0.000315326 x0=0.0017084 c1=0.0117887 c0=0.00367967 enabled=true phases=3
New Line.idlinea134_idtramos_108 bus1=271 bus2=55 length=746.199 units=0 r1=0.000663124 r0=0.000808557 x1=0.000325502 x0=0.00171857 c1=0.011393900000000002 c0=0.0036404500000000004 enabled=true phases=3
New Line.idlinea135_idtramos_109 bus1=55 bus2=56 length=583.211 units=0 r1=0.000663124 r0=0.000808557 x1=0.000325502 x0=0.00171857 c1=0.011393900000000002 c0=0.0036404500000000004 enabled=true phases=3
New Line.idlinea135_idtramos_110 bus1=56 bus2=272 length=10.415 units=0 r1=0.000663124 r0=0.000808557 x1=0.000325502 x0=0.00171857 c1=0.011393900000000002 c0=0.0036404500000000004 enabled=true phases=3
New Line.idlinea136_idtramos_111 bus1=1090 bus2=1539 length=36.42 units=0 r1=0.000952086 r0=0.00109752 x1=0.00033682 x0=0.00172989 c1=0.0109851 c0=0.0035978200000000003 enabled=true phases=3
New Line.idlinea137_idtramos_112 bus1=964 bus2=1090 length=320.936 units=0 r1=0.000663124 r0=0.000808557 x1=0.000325502 x0=0.00171857 c1=0.011393900000000002 c0=0.0036404500000000004 enabled=true phases=3
New Line.idlinea138_idtramos_113 bus1=1812 bus2=351 length=35.069 units=0 r1=0.000952086 r0=0.00109752 x1=0.00033682 x0=0.00172989 c1=0.0109851 c0=0.0035978200000000003 enabled=true phases=3
New Line.idlinea27_idtramos_114 bus1=57 bus2=840 length=26.917 units=0 r1=0.00048417 r0=0.000629602 x1=0.000315326 x0=0.0017084 c1=0.0117887 c0=0.00367967 enabled=true phases=3
New Line.idlinea139_idtramos_115 bus1=1346 bus2=349 length=31.668 units=0 r1=0.000952086 r0=0.00109752 x1=0.00033682 x0=0.00172989 c1=0.0109851 c0=0.0035978200000000003 enabled=true phases=3
New Line.idlinea140_idtramos_116 bus1=347 bus2=345 length=31.84 units=0 r1=0.000952086 r0=0.00109752 x1=0.00033682 x0=0.00172989 c1=0.0109851 c0=0.0035978200000000003 enabled=true phases=3
New Line.idlinea141_idtramos_117 bus1=344 bus2=1494 length=16.178 units=0 r1=0.000952086 r0=0.00109752 x1=0.00033682 x0=0.00172989 c1=0.0109851 c0=0.0035978200000000003 enabled=true phases=3
New Line.idlinea142_idtramos_118 bus1=230 bus2=58 length=1.069 units=0 r1=0.000352234 r0=0.000497666 x1=0.000305055 x0=0.00169813 c1=0.012216100000000002 c0=0.0037201300000000003 enabled=true phases=3
New Line.idlinea142_idtramos_119 bus1=58 bus2=1372 length=37.235 units=0 r1=0.000352234 r0=0.000497666 x1=0.000305055 x0=0.00169813 c1=0.012216100000000002 c0=0.0037201300000000003 enabled=true phases=3
New Line.idlinea143_idtramos_120 bus1=28 bus2=1504 length=17.925 units=0 r1=0.00048417 r0=0.000629602 x1=0.000315326 x0=0.0017084 c1=0.0117887 c0=0.00367967 enabled=true phases=3
New Line.idlinea144_idtramos_121 bus1=87 bus2=1504 length=30.922 units=0 r1=0.00048417 r0=0.000629602 x1=0.000315326 x0=0.0017084 c1=0.0117887 c0=0.00367967 enabled=true phases=3
New Line.idlinea145_idtramos_122 bus1=955 bus2=1305 length=40.575 units=0 r1=0.000952086 r0=0.00109752 x1=0.00033682 x0=0.00172989 c1=0.0109851 c0=0.0035978200000000003 enabled=true phases=3
New Line.idlinea146_idtramos_123 bus1=955 bus2=59 length=12.926 units=0 r1=0.000952086 r0=0.00109752 x1=0.00033682 x0=0.00172989 c1=0.0109851 c0=0.0035978200000000003 enabled=true phases=3
New Line.idlinea146_idtramos_124 bus1=59 bus2=60 length=41.476 units=0 r1=0.000952086 r0=0.00109752 x1=0.00033682 x0=0.00172989 c1=0.0109851 c0=0.0035978200000000003 enabled=true phases=3
New Line.idlinea147_idtramos_125 bus1=61 bus2=1369 length=10.615 units=0 r1=0.000352234 r0=0.000497666 x1=0.000305055 x0=0.00169813 c1=0.012216100000000002 c0=0.0037201300000000003 enabled=true phases=3
New Line.idlinea148_idtramos_126 bus1=953 bus2=956 length=38.666 units=0 r1=0.000952086 r0=0.00109752 x1=0.00033682 x0=0.00172989 c1=0.0109851 c0=0.0035978200000000003 enabled=true phases=3
New Line.idlinea149_idtramos_127 bus1=967 bus2=62 length=28.564 units=0 r1=0.000952086 r0=0.00109752 x1=0.00033682 x0=0.00172989 c1=0.0109851 c0=0.0035978200000000003 enabled=true phases=3
New Line.idlinea150_idtramos_128 bus1=970 bus2=1531 length=67.164 units=0 r1=0.000952086 r0=0.00109752 x1=0.00033682 x0=0.00172989 c1=0.0109851 c0=0.0035978200000000003 enabled=true phases=3
New Line.idlinea151_idtramos_129 bus1=1533 bus2=973 length=8.713 units=0 r1=0.000952086 r0=0.00109752 x1=0.00033682 x0=0.00172989 c1=0.0109851 c0=0.0035978200000000003 enabled=true phases=3
New Line.idlinea152_idtramos_130 bus1=1533 bus2=74 length=11.284 units=0 r1=0.000952086 r0=0.00109752 x1=0.00033682 x0=0.00172989 c1=0.0109851 c0=0.0035978200000000003 enabled=true phases=3
New Line.idlinea153_idtramos_131 bus1=1481 bus2=975 length=15.281 units=0 r1=0.000952086 r0=0.00109752 x1=0.00033682 x0=0.00172989 c1=0.0109851 c0=0.0035978200000000003 enabled=true phases=3
New Line.idlinea154_idtramos_132 bus1=895 bus2=1498 length=5.281 units=0 r1=0.000275299 r0=0.000420731 x1=0.000297103 x0=0.00169017 c1=0.012569200000000003 c0=0.0037520900000000005 enabled=true phases=3
New Line.idlinea155_idtramos_133 bus1=955 bus2=957 length=185.044 units=0 r1=0.000275299 r0=0.000420731 x1=0.000297103 x0=0.00169017 c1=0.012569200000000003 c0=0.0037520900000000005 enabled=true phases=3
New Line.idlinea158_idtramos_134 bus1=1640 bus2=63 length=112.788 units=0 r1=0.00048417 r0=0.000629602 x1=0.000315326 x0=0.0017084 c1=0.0117887 c0=0.00367967 enabled=true phases=3
New Line.idlinea159_idtramos_135 bus1=978 bus2=980 length=35.059 units=0 r1=0.00048417 r0=0.000629602 x1=0.000315326 x0=0.0017084 c1=0.0117887 c0=0.00367967 enabled=true phases=3
New Line.idlinea173_idtramos_136 bus1=94 bus2=981 length=79.298 units=0 r1=0.000952086 r0=0.00109752 x1=0.00033682 x0=0.00172989 c1=0.0109851 c0=0.0035978200000000003 enabled=true phases=3
New Line.idlinea174_idtramos_137 bus1=64 bus2=985 length=60.317 units=0 r1=0.000952086 r0=0.00109752 x1=0.00033682 x0=0.00172989 c1=0.0109851 c0=0.0035978200000000003 enabled=true phases=3
New Line.idlinea175_idtramos_138 bus1=984 bus2=985 length=35.543 units=0 r1=0.000952086 r0=0.00109752 x1=0.00033682 x0=0.00172989 c1=0.0109851 c0=0.0035978200000000003 enabled=true phases=3
New Line.idlinea184_idtramos_139 bus1=923 bus2=928 length=16.275 units=0 r1=0.000952086 r0=0.00109752 x1=0.00033682 x0=0.00172989 c1=0.0109851 c0=0.0035978200000000003 enabled=true phases=3
New Line.idlinea185_idtramos_140 bus1=275 bus2=939 length=196.542 units=0 r1=0.000663124 r0=0.000808557 x1=0.000325502 x0=0.00171857 c1=0.011393900000000002 c0=0.0036404500000000004 enabled=true phases=3
New Line.idlinea186_idtramos_141 bus1=934 bus2=936 length=28.644 units=0 r1=0.000952086 r0=0.00109752 x1=0.00033682 x0=0.00172989 c1=0.0109851 c0=0.0035978200000000003 enabled=true phases=3
New Line.idlinea187_idtramos_142 bus1=937 bus2=65 length=17.695 units=0 r1=0.000952086 r0=0.00109752 x1=0.00033682 x0=0.00172989 c1=0.0109851 c0=0.0035978200000000003 enabled=true phases=3
New Line.idlinea188_idtramos_143 bus1=900 bus2=917 length=4.909 units=0 r1=0.000952086 r0=0.00109752 x1=0.00033682 x0=0.00172989 c1=0.0109851 c0=0.0035978200000000003 enabled=true phases=3
New Line.idlinea189_idtramos_144 bus1=901 bus2=902 length=15.029 units=0 r1=0.000952086 r0=0.00109752 x1=0.00033682 x0=0.00172989 c1=0.0109851 c0=0.0035978200000000003 enabled=true phases=3
New Line.idlinea190_idtramos_145 bus1=1413 bus2=66 length=2.431 units=0 r1=0.000952086 r0=0.00109752 x1=0.00033682 x0=0.00172989 c1=0.0109851 c0=0.0035978200000000003 enabled=true phases=3
New Line.idlinea190_idtramos_146 bus1=66 bus2=910 length=12.015 units=0 r1=0.000952086 r0=0.00109752 x1=0.00033682 x0=0.00172989 c1=0.0109851 c0=0.0035978200000000003 enabled=true phases=3
New Line.idlinea191_idtramos_147 bus1=912 bus2=914 length=18.212 units=0 r1=0.000952086 r0=0.00109752 x1=0.00033682 x0=0.00172989 c1=0.0109851 c0=0.0035978200000000003 enabled=true phases=3
New Line.idlinea195_idtramos_148 bus1=67 bus2=1367 length=10.434 units=0 r1=0.000352234 r0=0.000497666 x1=0.000305055 x0=0.00169813 c1=0.012216100000000002 c0=0.0037201300000000003 enabled=true phases=3
New Line.idlinea196_idtramos_149 bus1=1368 bus2=1501 length=36.422 units=0 r1=0.00048417 r0=0.000629602 x1=0.000315326 x0=0.0017084 c1=0.0117887 c0=0.00367967 enabled=true phases=3
New Line.idlinea196_idtramos_150 bus1=1501 bus2=227 length=15.693 units=0 r1=0.00048417 r0=0.000629602 x1=0.000315326 x0=0.0017084 c1=0.0117887 c0=0.00367967 enabled=true phases=3
New Line.idlinea197_idtramos_151 bus1=228 bus2=68 length=513.851 units=0 r1=0.000352234 r0=0.000497666 x1=0.000305055 x0=0.00169813 c1=0.012216100000000002 c0=0.0037201300000000003 enabled=true phases=3
New Line.idlinea197_idtramos_152 bus1=68 bus2=69 length=21.387 units=0 r1=0.000352234 r0=0.000497666 x1=0.000305055 x0=0.00169813 c1=0.012216100000000002 c0=0.0037201300000000003 enabled=true phases=3
New Line.idlinea197_idtramos_153 bus1=69 bus2=1011 length=0.472 units=0 r1=0.000352234 r0=0.000497666 x1=0.000305055 x0=0.00169813 c1=0.012216100000000002 c0=0.0037201300000000003 enabled=true phases=3
New Line.idlinea198_idtramos_154 bus1=1011 bus2=1012 length=6.68 units=0 r1=0.000952086 r0=0.00109752 x1=0.00033682 x0=0.00172989 c1=0.0109851 c0=0.0035978200000000003 enabled=true phases=3
New Line.idlinea199_idtramos_155 bus1=1014 bus2=1016 length=5.956 units=0 r1=0.000952086 r0=0.00109752 x1=0.00033682 x0=0.00172989 c1=0.0109851 c0=0.0035978200000000003 enabled=true phases=3
New Line.idlinea200_idtramos_156 bus1=70 bus2=1021 length=13.143 units=0 r1=0.000952086 r0=0.00109752 x1=0.00033682 x0=0.00172989 c1=0.0109851 c0=0.0035978200000000003 enabled=true phases=3
New Line.idlinea201_idtramos_157 bus1=1015 bus2=1024 length=35.278 units=0 r1=0.000952086 r0=0.00109752 x1=0.00033682 x0=0.00172989 c1=0.0109851 c0=0.0035978200000000003 enabled=true phases=3
New Line.idlinea202_idtramos_158 bus1=1485 bus2=1027 length=5.496 units=0 r1=0.000952086 r0=0.00109752 x1=0.00033682 x0=0.00172989 c1=0.0109851 c0=0.0035978200000000003 enabled=true phases=3
New Line.idlinea29_idtramos_159 bus1=71 bus2=891 length=610.019 units=0 r1=0.00048417 r0=0.000629602 x1=0.000315326 x0=0.0017084 c1=0.0117887 c0=0.00367967 enabled=true phases=3
New Line.idlinea30_idtramos_160 bus1=1653 bus2=857 length=12.589 units=0 r1=0.000663124 r0=0.000808557 x1=0.000325502 x0=0.00171857 c1=0.011393900000000002 c0=0.0036404500000000004 enabled=true phases=3
New Line.idlinea31_idtramos_161 bus1=825 bus2=858 length=12.715 units=0 r1=0.00048417 r0=0.000629602 x1=0.000315326 x0=0.0017084 c1=0.0117887 c0=0.00367967 enabled=true phases=3
New Line.idlinea115_idtramos_162 bus1=72 bus2=362 length=34.448 units=0 r1=0.000952086 r0=0.00109752 x1=0.00033682 x0=0.00172989 c1=0.0109851 c0=0.0035978200000000003 enabled=true phases=3
New Line.idlinea160_idtramos_163 bus1=983 bus2=73 length=222.605 units=0 r1=0.000952086 r0=0.00109752 x1=0.00033682 x0=0.00172989 c1=0.0109851 c0=0.0035978200000000003 enabled=true phases=3
New Line.idlinea160_idtramos_164 bus1=73 bus2=997 length=16.407 units=0 r1=0.000952086 r0=0.00109752 x1=0.00033682 x0=0.00172989 c1=0.0109851 c0=0.0035978200000000003 enabled=true phases=3
New Line.idlinea203_idtramos_165 bus1=74 bus2=75 length=173.952 units=0 r1=0.000352234 r0=0.000497666 x1=0.000305055 x0=0.00169813 c1=0.012216100000000002 c0=0.0037201300000000003 enabled=true phases=3
New Line.idlinea203_idtramos_166 bus1=75 bus2=1315 length=44.068 units=0 r1=0.000352234 r0=0.000497666 x1=0.000305055 x0=0.00169813 c1=0.012216100000000002 c0=0.0037201300000000003 enabled=true phases=3
New Line.idlinea116_idtramos_167 bus1=381 bus2=368 length=35.915 units=0 r1=0.000952086 r0=0.00109752 x1=0.00033682 x0=0.00172989 c1=0.0109851 c0=0.0035978200000000003 enabled=true phases=3
New Line.idlinea117_idtramos_168 bus1=278 bus2=280 length=31.854 units=0 r1=0.000952086 r0=0.00109752 x1=0.00033682 x0=0.00172989 c1=0.0109851 c0=0.0035978200000000003 enabled=true phases=3
New Line.idlinea33_idtramos_169 bus1=76 bus2=812 length=24.266 units=0 r1=0.000352234 r0=0.000497666 x1=0.000305055 x0=0.00169813 c1=0.012216100000000002 c0=0.0037201300000000003 enabled=true phases=3
New Line.idlinea118_idtramos_170 bus1=283 bus2=298 length=13.233 units=0 r1=0.000952086 r0=0.00109752 x1=0.00033682 x0=0.00172989 c1=0.0109851 c0=0.0035978200000000003 enabled=true phases=3
New Line.idlinea162_idtramos_171 bus1=1005 bus2=1342 length=362.756 units=0 r1=0.000952086 r0=0.00109752 x1=0.00033682 x0=0.00172989 c1=0.0109851 c0=0.0035978200000000003 enabled=true phases=3
New Line.idlinea163_idtramos_172 bus1=1004 bus2=1006 length=22.841 units=0 r1=0.000952086 r0=0.00109752 x1=0.00033682 x0=0.00172989 c1=0.0109851 c0=0.0035978200000000003 enabled=true phases=3
New Line.idlinea164_idtramos_173 bus1=1000 bus2=1001 length=22.366 units=0 r1=0.000952086 r0=0.00109752 x1=0.00033682 x0=0.00172989 c1=0.0109851 c0=0.0035978200000000003 enabled=true phases=3
New Line.idlinea63_idtramos_174 bus1=77 bus2=764 length=25.915 units=0 r1=0.000952086 r0=0.00109752 x1=0.00033682 x0=0.00172989 c1=0.0109851 c0=0.0035978200000000003 enabled=true phases=3
New Line.idlinea119_idtramos_175 bus1=321 bus2=1376 length=535.72 units=0 r1=0.00048417 r0=0.000629602 x1=0.000315326 x0=0.0017084 c1=0.0117887 c0=0.00367967 enabled=true phases=3
New Line.idlinea64_idtramos_176 bus1=77 bus2=78 length=44.585 units=0 r1=0.00131006 r0=0.0014555 x1=0.000346644 x0=0.00173971 c1=0.010653400000000002 c0=0.00356164 enabled=true phases=3
New Line.idlinea64_idtramos_177 bus1=78 bus2=79 length=22.112 units=0 r1=0.00131006 r0=0.0014555 x1=0.000346644 x0=0.00173971 c1=0.010653400000000002 c0=0.00356164 enabled=true phases=3
New Line.idlinea64_idtramos_178 bus1=79 bus2=80 length=50.349 units=0 r1=0.00131006 r0=0.0014555 x1=0.000346644 x0=0.00173971 c1=0.010653400000000002 c0=0.00356164 enabled=true phases=3
New Line.idlinea64_idtramos_179 bus1=80 bus2=81 length=37.982 units=0 r1=0.00131006 r0=0.0014555 x1=0.000346644 x0=0.00173971 c1=0.010653400000000002 c0=0.00356164 enabled=true phases=3
New Line.idlinea64_idtramos_180 bus1=81 bus2=82 length=21.405 units=0 r1=0.00131006 r0=0.0014555 x1=0.000346644 x0=0.00173971 c1=0.010653400000000002 c0=0.00356164 enabled=true phases=3
New Line.idlinea64_idtramos_181 bus1=82 bus2=83 length=101.508 units=0 r1=0.00131006 r0=0.0014555 x1=0.000346644 x0=0.00173971 c1=0.010653400000000002 c0=0.00356164 enabled=true phases=3
New Line.idlinea64_idtramos_182 bus1=83 bus2=84 length=173.784 units=0 r1=0.00131006 r0=0.0014555 x1=0.000346644 x0=0.00173971 c1=0.010653400000000002 c0=0.00356164 enabled=true phases=3
New Line.idlinea64_idtramos_183 bus1=84 bus2=85 length=13.176 units=0 r1=0.00131006 r0=0.0014555 x1=0.000346644 x0=0.00173971 c1=0.010653400000000002 c0=0.00356164 enabled=true phases=3
New Line.idlinea64_idtramos_184 bus1=85 bus2=86 length=604.206 units=0 r1=0.00131006 r0=0.0014555 x1=0.000346644 x0=0.00173971 c1=0.010653400000000002 c0=0.00356164 enabled=true phases=3
New Line.idlinea64_idtramos_185 bus1=86 bus2=762 length=7.503 units=0 r1=0.00131006 r0=0.0014555 x1=0.000346644 x0=0.00173971 c1=0.010653400000000002 c0=0.00356164 enabled=true phases=3
New Line.idlinea34_idtramos_186 bus1=671 bus2=673 length=39.727 units=0 r1=0.000952086 r0=0.00109752 x1=0.00033682 x0=0.00172989 c1=0.0109851 c0=0.0035978200000000003 enabled=true phases=3
New Line.idlinea36_idtramos_187 bus1=842 bus2=844 length=8.613 units=0 r1=0.000952086 r0=0.00109752 x1=0.00033682 x0=0.00172989 c1=0.0109851 c0=0.0035978200000000003 enabled=true phases=3
New Line.idlinea37_idtramos_188 bus1=87 bus2=862 length=101.887 units=0 r1=0.00048417 r0=0.000629602 x1=0.000315326 x0=0.0017084 c1=0.0117887 c0=0.00367967 enabled=true phases=3
New Line.idlinea67_idtramos_189 bus1=1694 bus2=88 length=15.952 units=0 r1=0.000663124 r0=0.000808557 x1=0.000325502 x0=0.00171857 c1=0.011393900000000002 c0=0.0036404500000000004 enabled=true phases=3
New Line.idlinea67_idtramos_190 bus1=88 bus2=89 length=698.566 units=0 r1=0.000663124 r0=0.000808557 x1=0.000325502 x0=0.00171857 c1=0.011393900000000002 c0=0.0036404500000000004 enabled=true phases=3
New Line.idlinea68_idtramos_191 bus1=783 bus2=780 length=14.546 units=0 r1=0.00048417 r0=0.000629602 x1=0.000315326 x0=0.0017084 c1=0.0117887 c0=0.00367967 enabled=true phases=3
New Line.idlinea69_idtramos_192 bus1=784 bus2=788 length=28.83 units=0 r1=0.000952086 r0=0.00109752 x1=0.00033682 x0=0.00172989 c1=0.0109851 c0=0.0035978200000000003 enabled=true phases=3
New Line.idlinea70_idtramos_193 bus1=90 bus2=795 length=124.425 units=0 r1=0.000663124 r0=0.000808557 x1=0.000325502 x0=0.00171857 c1=0.011393900000000002 c0=0.0036404500000000004 enabled=true phases=3
New Line.idlinea71_idtramos_194 bus1=797 bus2=1443 length=21.779 units=0 r1=0.000663124 r0=0.000808557 x1=0.000325502 x0=0.00171857 c1=0.011393900000000002 c0=0.0036404500000000004 enabled=true phases=3
New Line.idlinea72_idtramos_195 bus1=812 bus2=815 length=58.383 units=0 r1=0.00048417 r0=0.000629602 x1=0.000315326 x0=0.0017084 c1=0.0117887 c0=0.00367967 enabled=true phases=3
...
